Labs/Figures/LabSix/PFOutPartC.dat
  Power Flow Case Title :                               
  Base MVA :  100.0 MVA

            CONVERGENCE SUMMARY 
   ITER            DELP              DELQ

    0.0          0.933447
    0.5                            0.850784
    1.0          0.166959
    1.5                            0.057378
    2.0          0.037550
    2.5                            0.013455
    3.0          0.012255
    3.5                            0.004786
    4.0          0.004013
    4.5                            0.411415
    5.0          0.192231
    5.5                            0.043739
    6.0          0.024446
    6.5                            0.008644
    7.0          0.011624
    7.5                            0.004114
    8.0          0.005583
    8.5                            0.130599
    9.0          0.064698
    9.5                            0.015000
   10.0          0.038978
   10.5                            0.012291
   11.0          0.028702
   11.5                            0.008878
   12.0          0.021744
   12.5                            0.006742
   13.0          0.016907
   13.5                            0.005224
   14.0          0.013454
   14.5                            0.004142
   15.0          0.010909
   15.5                            0.003348
   16.0          0.008980
   16.5                            0.002749
   17.0          0.007484
   17.5                            0.002286
   18.0          0.006301
   18.5                            0.001921
   19.0          0.005351
   19.5                            0.001629
   20.0          0.004578
   20.5                            0.001392
   21.0          0.003941
   21.5                            0.001196
   22.0          0.003410
   22.5                            0.001034
   23.0          0.002965
   23.5                            0.000898
   24.0          0.002588
   24.5                            0.000784
   25.0          0.002267
   25.5                            0.000686
   26.0          0.001991
   26.5                            0.000602
   27.0          0.001754
   27.5                            0.000530
   28.0          0.001549
   28.5                            0.000468
   29.0          0.001370
   29.5                            0.000414
   30.0          0.001215
   30.5                            0.000367
   31.0          0.001079
   31.5                            0.000325
   32.0          0.000959

  **************************** POWER FLOW REPORT ***************************

  BUS   VOLTAGE   ANGLE        GENERATION               LOAD  
  NO.    (PU)     (DEG)      (MW)       (MVAR)       (MW)        (MVAR)  


    30  0.7390   -40.47     0.00000     0.00000    10.60000     1.90000
    TO-BUS    29      -3.66920 MW    -0.55317 MVAR           
    TO-BUS    27      -6.91881 MW    -1.34773 MVAR           

    29  0.7546   -38.90     0.00000     0.00000     2.40000     0.90000
    TO-BUS    27      -6.12798 MW    -1.56735 MVAR           
    TO-BUS    30       3.72968 MW     0.66746 MVAR           

    27  0.7816   -36.76     0.00000     0.00000     0.00000     0.00000
    TO-BUS    25      43.84764 MW    11.04109 MVAR           
    TO-BUS    29       6.28243 MW     1.85916 MVAR           
    TO-BUS    30       7.21014 MW     1.89609 MVAR           
    TO-BUS    28     -57.36310 MW   -14.78829 MVAR           

    28  0.8755   -18.02     0.00000     0.00000     0.00000     0.00000
    TO-BUS     6     -49.91967 MW   -27.42527 MVAR           
    TO-BUS     8      -7.48720 MW   -10.11672 MVAR           
    TO-BUS    27      57.36310 MW    37.53596 MVAR           

    26  0.6719   -46.04     0.00000     0.00000     3.50000     2.30000
    TO-BUS    25      -3.49658 MW    -2.29909 MVAR           

    24  0.8154   -32.02     0.00000     0.00000     8.70000     6.70000
    TO-BUS    25      43.99399 MW     8.33144 MVAR           
    TO-BUS    23     -17.61500 MW    -5.10734 MVAR           
    TO-BUS    22     -35.10510 MW    -7.06075 MVAR   OVERLOAD

    25  0.6982   -45.13     0.00000     0.00000    75.00000     0.00000
    TO-BUS    26       3.59526 MW     2.44649 MVAR           
    TO-BUS    27     -40.18964 MW    -4.05643 MVAR           
    TO-BUS    24     -38.30972 MW     1.59568 MVAR           

    23  0.8623   -28.69     0.00000     0.00000     3.20000     1.60000
    TO-BUS    24      18.28283 MW     6.47336 MVAR           
    TO-BUS    15     -21.48514 MW    -8.07258 MVAR           

    14  0.9236   -25.61     0.00000     0.00000     6.20000     1.60000
    TO-BUS    15       5.44622 MW     1.63653 MVAR           
    TO-BUS    12     -11.64236 MW    -3.23656 MVAR           

    15  0.9070   -26.10     0.00000     0.00000     8.20000     2.50000
    TO-BUS    18       6.40397 MW     1.93897 MVAR           
    TO-BUS    12     -31.43700 MW   -12.38138 MVAR           
    TO-BUS    23      22.19365 MW     9.50376 MVAR           
    TO-BUS    14      -5.36243 MW    -1.56081 MVAR           

    18  0.8949   -26.95     0.00000     0.00000     3.20000     0.90000
    TO-BUS    19       3.14696 MW     0.92003 MVAR           
    TO-BUS    15      -6.34558 MW    -1.82007 MVAR           

    12  0.9485   -23.92     0.00000     0.00000    11.20000     7.50000
    TO-BUS    16      11.64192 MW     6.43489 MVAR           
    TO-BUS    13       0.00000 MW   -23.16084 MVAR           
    TO-BUS     4     -67.04120 MW    -8.63510 MVAR           
    TO-BUS    14      11.85310 MW     3.67464 MVAR           
    TO-BUS    15      32.35560 MW    14.19084 MVAR           

    19  0.8913   -27.19     0.00000     0.00000     9.50000     3.40000
    TO-BUS    20      -6.35741 MW    -2.49724 MVAR           
    TO-BUS    18      -3.13838 MW    -0.90269 MVAR           

    20  0.8956   -26.95     0.00000     0.00000     2.20000     0.70000
    TO-BUS    10      -8.57647 MW    -3.23714 MVAR           
    TO-BUS    19       6.37738 MW     2.53718 MVAR           

    22  0.8830   -27.66     0.00000     0.00000     0.00000     0.00000
    TO-BUS    21     -17.26284 MW    -3.20128 MVAR           
    TO-BUS    10     -20.06321 MW    -7.31008 MVAR           
    TO-BUS    24      37.32297 MW    10.51291 MVAR   OVERLOAD

    21  0.8861   -27.39     0.00000     0.00000    17.50000    11.20000
    TO-BUS    10     -34.80287 MW   -14.49265 MVAR           
    TO-BUS    22      17.30871 MW     3.29459 MVAR           

    10  0.9123   -25.90     0.00000     0.00000     5.80000     2.00000
    TO-BUS     9     -45.63141 MW   -14.21960 MVAR           
    TO-BUS    17       1.09203 MW     1.74255 MVAR           
    TO-BUS    21      35.43282 MW    15.84849 MVAR           
    TO-BUS    22      20.48841 MW     8.18681 MVAR           
    TO-BUS     6     -25.84503 MW    -1.19560 MVAR           
    TO-BUS    20       8.67452 MW     3.45608 MVAR           

    17  0.9103   -25.93     0.00000     0.00000     9.00000     5.80000
    TO-BUS    10      -1.09038 MW    -1.73826 MVAR           
    TO-BUS    16      -7.90590 MW    -4.06084 MVAR           

    16  0.9236   -25.03     0.00000     0.00000     3.50000     1.80000
    TO-BUS    17       7.95586 MW     4.24415 MVAR           
    TO-BUS    12     -11.45604 MW    -6.04405 MVAR           

     4  0.9213   -13.37     0.00000     0.00000     7.60000     1.60000
    TO-BUS    12      67.04120 MW    21.63782 MVAR           
    TO-BUS     6     101.91616 MW    10.98334 MVAR           
    TO-BUS     2     -62.48403 MW   -16.40024 MVAR           
    TO-BUS     3    -114.09893 MW   -17.82308 MVAR           

    13  0.9826   -23.92     0.00000    24.00000     0.00000     0.00000
    TO-BUS    12       0.00000 MW    23.99567 MVAR           

     1  1.0600     0.00   370.41258    98.24316     0.00000     0.00000
    TO-BUS     2     244.47068 MW    51.38912 MVAR           
    TO-BUS     3     125.94190 MW    47.01454 MVAR           

     2  0.9938    -7.10    40.00000    50.00000    21.70000    12.70000
    TO-BUS     4      65.25405 MW    21.46246 MVAR           
    TO-BUS     5      97.21984 MW    15.05851 MVAR           
    TO-BUS     6      89.54161 MW    25.64868 MVAR           
    TO-BUS     1    -233.75306 MW   -24.86598 MVAR           

     9  0.9311   -22.51     0.00000     0.00000     0.00000     0.00000
    TO-BUS    11       0.00000 MW   -22.75358 MVAR           
    TO-BUS    10      45.63141 MW    17.23873 MVAR           
    TO-BUS     6     -45.63548 MW     5.51415 MVAR           

     6  0.9041   -16.18     0.00000     0.00000     0.00000     0.00000
    TO-BUS     9      45.63548 MW    -0.44441 MVAR           
    TO-BUS    10      25.84503 MW     5.66727 MVAR           
    TO-BUS     8      37.79223 MW    -2.91751 MVAR           
    TO-BUS     7      24.88939 MW   -11.24936 MVAR           
    TO-BUS     2     -84.38075 MW   -13.36391 MVAR           
    TO-BUS    28      50.62890 MW    28.90949 MVAR           
    TO-BUS     4    -100.44166 MW    -6.60330 MVAR           

    11  0.9819   -22.51     0.00000    24.00000     0.00000     0.00000
    TO-BUS     9       0.00000 MW    23.99576 MVAR           

     7  0.9067   -17.81     0.00000     0.00000    22.80000    10.90000
    TO-BUS     5       1.85598 MW   -21.48861 MVAR           
    TO-BUS     6     -24.65063 MW    10.58917 MVAR           

     5  0.9322   -18.60     0.00000    40.00000    94.20000    19.00000
    TO-BUS     7      -1.61543 MW    20.37034 MVAR           
    TO-BUS     2     -92.56310 MW     0.62506 MVAR           

     8  0.9004   -17.32     0.00000    40.00000    30.00000    30.00000
    TO-BUS    28       7.59332 MW     7.07494 MVAR           
    TO-BUS     6     -37.58158 MW     2.92214 MVAR           

     3  0.9458   -10.68     0.00000     0.00000     2.40000     1.20000
    TO-BUS     4     116.17117 MW    23.04074 MVAR           
    TO-BUS     1    -118.58322 MW   -24.23665 MVAR           



  *********************** AREA INTERCHANGE REPORT ***************************

  FROM AREA

                TO   AREA   MW FLOW  MVAR FLOW

